This namelist contains various input parameters for HYDRO runs

&RUN
tend=1000.0
noutput=50
t_rate=3
/

&MESH
nx=400
ny=2400
dx=0.01
boundary_left=1
boundary_right=1
boundary_down=1
boundary_up=1
/

&HYDRO
courant_factor=0.8
niter_riemann=10
/
