This namelist contains various input parameters for HYDRO runs

&RUN
tend=1000.0
t_rate=3
/

&MESH
nx=1600
ny=9600
dx=0.0025
boundary_left=1
boundary_right=1
boundary_down=1
boundary_up=1
/

&HYDRO
courant_factor=0.8
niter_riemann=10
/
